Circuit: * C:\Users\Rasit\Documents\GitHub\EE463-Project\Simulation.asc

Direct Newton iteration failed to find .op point.  (Use ".option noopiter" to skip.)
Starting Gmin stepping
Gmin = 10
Gmin = 1.07374
Gmin = 0.115292
Gmin = 0.0123794
Gmin = 0.00132923
Gmin = 0.000142725
Gmin = 1.5325e-005
Gmin = 1.6455e-006
Gmin = 1.76685e-007
Gmin = 1.89714e-008
Gmin = 2.03704e-009
Gmin = 2.18725e-010
Gmin = 2.34854e-011
Gmin = 2.52173e-012
Gmin = 2.70769e-013
Gmin = 0
Gmin stepping succeeded in finding the operating point.

Heightened Def Con from 6.44953e-006 to 6.44967e-006
Heightened Def Con from 7.58057e-006 +++++++++++++++++++to 7.5817e-006
Heightened Def Con from 7.5817e-006 ++++++++++++++++++to 7.58184e-006
Heightened Def Con from 7.58184e-006 ++++++++++++++++++to 7.58221e-006
Heightened Def Con from 7.58221e-006 ++++++++++++++++++to 7.58521e-006
Heightened Def Con from 7.58521e-006 ++++++++++++++++++to 7.58821e-006
Heightened Def Con from 7.58821e-006 ++++++++++++++++++to 7.59121e-006
Heightened Def Con from 7.59121e-006 ++++++++++++++++++to 7.59421e-006
Heightened Def Con from 7.59421e-006 ++++++++++++++++++to 7.59721e-006
Heightened Def Con from 7.59721e-006 ++++++++++++++++++to 7.60021e-006
Heightened Def Con from 7.60021e-006 ++++++++++++++++++to 7.60321e-006
Heightened Def Con from 7.60321e-006 ++++++++++++++++++to 7.60621e-006
Heightened Def Con from 7.60621e-006 ++++++++++++++++++to 7.60921e-006
Heightened Def Con from 7.60921e-006 ++++++++++++++++++to 7.61121e-006
Heightened Def Con from 7.61121e-006 ++++++++++++++++++to 7.61321e-006
Heightened Def Con from 7.61321e-006 ++++++++++++++++++to 7.61521e-006
Heightened Def Con from 7.61521e-006 ++++++++++++++++++to 7.61721e-006
Heightened Def Con from 7.61721e-006 ++++++++++++++++++to 7.61921e-006
Heightened Def Con from 7.61921e-006 +++++++++++++++++to 7.62321e-006
Heightened Def Con from 7.62321e-006 ++++++++++to 7.62321e-006

Date: Sun Jan 28 14:01:12 2018
Total elapsed time: 28.574 seconds.

tnom = 27
temp = 27
method = modified trap
totiter = 584272
traniter = 583795
tranpoints = 151040
accept = 106410
rejected = 44984
matrix size = 92
fillins = 66
solver = Normal
Thread vector: 55.1/18.8[3] 15.6/8.6[3] 9.0/4.6[3] 1.1/1.7[1]  2592/500
Matrix Compiler1: 9.89 KB object code size  4.2/2.2/[1.2]
Matrix Compiler2: 9.86 KB object code size  2.2/2.6/[1.5]

